Version 4
SHEET 1 1992 836
WIRE 528 16 528 -64
WIRE 784 16 784 -64
WIRE 1248 80 1248 0
WIRE 48 144 48 112
WIRE 528 144 528 96
WIRE 528 144 480 144
WIRE 784 144 784 96
WIRE 832 144 784 144
WIRE 528 192 528 144
WIRE 784 192 784 144
WIRE 352 240 288 240
WIRE 464 240 352 240
WIRE 960 240 848 240
WIRE 1056 240 960 240
WIRE 1216 240 1136 240
WIRE 1248 240 1248 160
WIRE 1248 240 1216 240
WIRE 48 272 48 224
WIRE 48 272 -48 272
WIRE -48 288 -48 272
WIRE 352 288 352 240
WIRE 960 288 960 240
WIRE 48 304 48 272
WIRE 528 320 528 288
WIRE 1248 320 1248 240
WIRE 48 416 48 384
WIRE 352 432 352 368
WIRE 960 432 960 368
WIRE 528 464 528 400
WIRE 576 464 528 464
WIRE 736 464 576 464
WIRE 784 464 784 288
WIRE 784 464 736 464
WIRE 1248 480 1248 400
WIRE 528 512 528 464
WIRE 784 512 784 464
WIRE 528 656 528 592
WIRE 784 656 784 592
FLAG -48 288 0
FLAG 48 112 VCC
IOPIN 48 112 BiDir
FLAG 48 416 VEE
IOPIN 48 416 BiDir
FLAG 352 432 0
FLAG 528 -64 VCC
IOPIN 528 -64 BiDir
FLAG 480 144 E
FLAG 288 240 A
FLAG 528 656 VEE
IOPIN 528 656 BiDir
FLAG 576 464 C
FLAG 960 432 0
FLAG 784 -64 VCC
IOPIN 784 -64 BiDir
FLAG 832 144 F
FLAG 960 240 B
FLAG 784 656 VEE
IOPIN 784 656 BiDir
FLAG 736 464 D
FLAG 1248 480 VEE
IOPIN 1248 480 BiDir
FLAG 1248 0 VCC
IOPIN 1248 0 BiDir
FLAG 1216 240 P
SYMBOL voltage 48 128 R0
SYMATTR InstName Vp
SYMATTR Value 15
SYMBOL voltage 48 288 R0
SYMATTR InstName Vn
SYMATTR Value 10.7
SYMBOL npn 464 192 R0
SYMATTR InstName Q1
SYMATTR Value 2N2222
SYMBOL res 512 304 R0
SYMATTR InstName Roffset
SYMATTR Value 5
SYMBOL res 512 0 R0
SYMATTR InstName Rc1
SYMATTR Value 10k
SYMBOL res 336 272 R0
SYMATTR InstName Rb1
SYMATTR Value 10k
SYMBOL res 512 496 R0
SYMATTR InstName Re1
SYMATTR Value 10k
SYMBOL npn 848 192 M0
SYMATTR InstName Q2
SYMATTR Value 2N2222
SYMBOL res 800 0 M0
SYMATTR InstName Rc2
SYMATTR Value 10k
SYMBOL res 976 272 M0
SYMATTR InstName Rb2
SYMATTR Value 10k
SYMBOL res 800 496 M0
SYMATTR InstName Re2
SYMATTR Value 10k
SYMBOL res 1152 224 R90
WINDOW 0 0 56 VBottom 2
WINDOW 3 32 56 VTop 2
SYMATTR InstName R1
SYMATTR Value 1Meg
SYMBOL res 1232 64 R0
SYMATTR InstName R2
SYMATTR Value {10k - x}
SYMBOL res 1232 304 R0
SYMATTR InstName R3
SYMATTR Value {x}
TEXT -68 762 Left 2 !.param x = 3.947958k\n;.dc param x 10 9990 10\n.op
TEXT 1464 -176 Left 2 ;--- Operating Point ---\n \nV(a):            -0.047466       voltage\nV(b):            -0.0524642      voltage\nV(d):            -0.706484       voltage\nV(e):            5.05391         voltage\nV(f):            5.05399         voltage\nV(p):            -0.552553       voltage
