Version 4
SHEET 1 2228 1012
WIRE 912 0 912 -80
WIRE 1168 0 1168 -80
WIRE 912 128 912 80
WIRE 912 128 864 128
WIRE 1168 128 1168 80
WIRE 1216 128 1168 128
WIRE 48 144 48 112
WIRE 912 176 912 128
WIRE 1168 176 1168 128
WIRE 496 224 416 224
WIRE 672 224 576 224
WIRE 736 224 672 224
WIRE 848 224 736 224
WIRE 1408 224 1232 224
WIRE 48 272 48 224
WIRE 48 272 -48 272
WIRE 416 272 416 224
WIRE 736 272 736 224
WIRE -48 288 -48 272
WIRE 1408 288 1408 224
WIRE 48 304 48 272
WIRE 48 416 48 384
WIRE 416 416 416 352
WIRE 736 416 736 352
WIRE 912 448 912 272
WIRE 960 448 912 448
WIRE 1120 448 960 448
WIRE 1168 448 1168 272
WIRE 1168 448 1120 448
WIRE 912 496 912 448
WIRE 1168 496 1168 448
WIRE 912 640 912 576
WIRE 1168 640 1168 576
FLAG -48 288 0
FLAG 48 112 VCC
IOPIN 48 112 BiDir
FLAG 48 416 VEE
IOPIN 48 416 BiDir
FLAG 736 416 0
FLAG 912 -80 VCC
IOPIN 912 -80 BiDir
FLAG 864 128 E
FLAG 672 224 A
FLAG 912 640 VEE
IOPIN 912 640 BiDir
FLAG 960 448 C
FLAG 1168 -80 VCC
IOPIN 1168 -80 BiDir
FLAG 1216 128 F
FLAG 1408 224 B
FLAG 1168 640 VEE
IOPIN 1168 640 BiDir
FLAG 1120 448 D
FLAG 1408 288 0
FLAG 416 416 0
FLAG 416 224 I
SYMBOL voltage 48 128 R0
SYMATTR InstName Vp
SYMATTR Value 15
SYMBOL voltage 48 288 R0
SYMATTR InstName Vn
SYMATTR Value 10.7
SYMBOL npn 848 176 R0
SYMATTR InstName Q1
SYMATTR Value 2N2222
SYMBOL res 896 -16 R0
SYMATTR InstName Rc1
SYMATTR Value 10k
SYMBOL res 720 256 R0
SYMATTR InstName R1
SYMATTR Value 100
SYMBOL res 896 480 R0
SYMATTR InstName Re1
SYMATTR Value 10k
SYMBOL npn 1232 176 M0
SYMATTR InstName Q2
SYMATTR Value 2N2222
SYMBOL res 1184 -16 M0
SYMATTR InstName Rc2
SYMATTR Value 10k
SYMBOL res 1184 480 M0
SYMATTR InstName Re2
SYMATTR Value 10k
SYMBOL voltage 416 256 R0
WINDOW 123 24 124 Left 2
WINDOW 39 0 0 Left 0
SYMATTR Value2 AC 1
SYMATTR InstName Vin
SYMATTR Value SINE(0 0.5 1k)
SYMBOL res 592 208 R90
WINDOW 0 0 56 VBottom 2
WINDOW 3 32 56 VTop 2
SYMATTR InstName R2
SYMATTR Value 10k
TEXT -72 744 Left 2 !.tran 10m\n.meas tran Vpp_A PP V(A)\n.meas tran Vpp_D PP V(D)\n.meas tran Vpp_E PP V(E)\n.meas tran Vpp_F PP V(F)\n.meas A_da param Vpp_D / Vpp_A\n.meas A_ea param Vpp_E / Vpp_A\n.meas A_fa param Vpp_F / Vpp_A
TEXT 1560 -40 Left 2 ;vpp_a: PP(v(a)) = 0.00980275 V\nvpp_d: PP(v(c)) = PP(v(d)) = 0.00485051 V\nvpp_e: PP(v(e)) = 1.7097 V\nvpp_f: PP(v(f)) = 1.70002 V\na_da: vpp_c / vpp_a = vpp_d / vpp_a = 0.494811\na_ea: vpp_e / vpp_a = -174.41\na_fa: vpp_f / vpp_a = 173.423\n \nA, D, C, and F are in phase; E is 180 degrees out of phase.
